extensions/entsoe/resources/entsoeArea.xml
<?xml version="1.0" encoding="UTF-8"?>
<iidm:network xmlns:iidm="http://www.powsybl.org/schema/iidm/1_13" xmlns:ea="http://www.itesla_project.eu/schema/iidm/ext/entsoe_area/1_0" id="test" caseDate="2016-06-27T12:27:58.535000+02:00" forecastDistance="0" sourceFormat="test" minimumValidationLevel="STEADY_STATE_HYPOTHESIS">
    <iidm:substation id="S" country="FR"/>
    <iidm:extension id="S">
        <ea:entsoeArea>FR</ea:entsoeArea>
    </iidm:extension>
</iidm:network>
